Circuit: * D:\Mes_Projets\ProjetElectro\LtSpice\Simulation_Badge.asc

WARNING: Less than two connections to node VREF.  This node is used by V5.
Direct Newton iteration failed to find .op point.  (Use ".option noopiter" to skip.)
Starting Gmin stepping
Gmin = 10
Gmin = 1.07374
Gmin = 0.115292
Gmin = 0.0123794
Gmin = 0.00132923
Gmin = 0.000142725
Gmin = 1.5325e-05
Gmin = 1.6455e-06
Gmin = 1.76685e-07
Gmin = 1.89714e-08
Gmin = 2.03704e-09
Gmin = 2.18725e-10
Gmin = 2.34854e-11
Gmin = 2.52173e-12
Gmin = 2.70769e-13
Gmin = 0
Gmin stepping succeeded in finding the operating point.


Date: Wed Mar 25 12:18:58 2020
Total elapsed time: 7.725 seconds.

tnom = 27
temp = 27
method = modified trap
totiter = 1634374
traniter = 1633812
tranpoints = 569723
accept = 390423
rejected = 179300
matrix size = 27
fillins = 11
solver = Normal
Matrix Compiler1: 1.60 KB object code size  0.4/0.2/[0.1]
Matrix Compiler2: 2.24 KB object code size  0.3/0.4/[0.3]

