Circuit: * D:\Mes_Projets\ProjetElectro\LtSpice\Simulation_Badge.asc

Error on line 28 : v7 n007 0 v
	 Unknown parameter "v"
WARNING: Less than two connections to node VREF.  This node is used by V5.
V7: Missing value, assumed 0V @ DC
Direct Newton iteration failed to find .op point.  (Use ".option noopiter" to skip.)
Starting Gmin stepping
Gmin = 10
Gmin = 1.07374
vernier = 0.5
vernier = 0.25
vernier = 0.125
vernier = 0.0625
Gmin = 0.995033
vernier = 0.03125
vernier = 0.015625
vernier = 0.0078125
vernier = 0.00390625
Gmin = 0.999816
vernier = 0.00195313
vernier = 0.000976563
vernier = 0.000488281
Gmin = 0
Gmin stepping failed

Starting source stepping with srcstepmethod=0
Source Step = 3.0303%
Source Step = 33.3333%
Source Step = 36.3755%
Source Step = 36.4051%
Source Step = 36.4347%
Source Step = 36.4643%
Source Step = 36.4938%
vernier = 0.00146484
Source Step = 36.5249%
Source Step = 36.5693%
Source Step = 36.6137%
Source Step = 36.6581%
Source Step = 36.7025%
Source Step = 36.7469%
vernier = 0.00219727
Source Step = 36.8134%
Source Step = 36.88%
Source Step = 36.9466%
Source Step = 37.0132%
Source Step = 37.0798%
vernier = 0.0032959
Source Step = 37.1763%
Source Step = 37.2762%
Source Step = 37.3761%
Source Step = 37.476%
Source Step = 37.5758%
vernier = 0.00494385
Source Step = 37.7157%
Source Step = 37.8655%
Source Step = 38.0153%
Source Step = 38.1651%
Source Step = 38.3149%
vernier = 0.00741577
Source Step = 38.5172%
Source Step = 38.7419%
Source Step = 38.9666%
Source Step = 39.1913%
Source Step = 39.416%
vernier = 0.0111237
Source Step = 39.7082%
Source Step = 40.0453%
Source Step = 40.3823%
Source Step = 40.7194%
Source Step = 41.0565%
vernier = 0.0166855
Source Step = 41.4779%
Source Step = 41.9835%
Source Step = 42.4891%
Source Step = 42.9947%
Source Step = 43.5003%
vernier = 0.0250282
Source Step = 44.1071%
Source Step = 44.8655%
Source Step = 45.6239%
Source Step = 46.3824%
Source Step = 47.1408%
vernier = 0.0375423
Source Step = 48.013%
Source Step = 49.1506%
Source Step = 50.2883%
Source Step = 51.4259%
Source Step = 52.5636%
vernier = 0.0563135
Source Step = 53.815%
Source Step = 55.5215%
Source Step = 57.2279%
Source Step = 58.9344%
Source Step = 60.6409%
vernier = 0.0844703
Source Step = 62.4327%
Source Step = 64.9924%
Source Step = 67.5521%
Source Step = 70.1118%
Source Step = 72.6715%
Source Step = 75.2312%
vernier = 0.126705
Source Step = 79.0708%
Source Step = 82.9103%
Source Step = 86.7499%
Source Step = 90.5894%
Source Step = 92.5212%
Source Step = 92.5812%
Source Step = 92.6412%
Source Step = 92.7012%
Source Step = 92.7612%
Source Step = 92.8212%
Source Step = 92.8812%
Source Step = 92.9412%
Source Step = 93.0012%
Source Step = 93.0611%
Source Step = 93.1211%
Source Step = 93.1811%
Source Step = 93.2411%
Source Step = 93.3011%
Source Step = 93.3611%
Source Step = 93.4211%
Source Step = 93.4811%
Source Step = 93.5411%
Source Step = 93.6011%
Source Step = 93.6611%
Source Step = 93.7211%
Source Step = 93.7811%
Source Step = 93.8411%
Source Step = 93.901%
Source Step = 93.961%
Source Step = 94.021%
Source Step = 94.081%
Source Step = 94.141%
Source Step = 94.201%
Source Step = 94.261%
Source Step = 94.321%
Source Step = 94.381%
Source Step = 94.441%
Source Step = 94.501%
Source Step = 94.561%
Source Step = 94.621%
Source Step = 94.681%
Source Step = 94.741%
Source Step = 94.8009%
Source Step = 94.8609%
vernier = 0.00296966
Source Step = 94.9299%
Source Step = 95.0199%
Source Step = 95.1099%
Source Step = 95.1999%
Source Step = 95.2899%
vernier = 0.00445449
Source Step = 95.3889%
Source Step = 95.5239%
Source Step = 95.6588%
Source Step = 95.7938%
Source Step = 95.9288%
vernier = 0.00668173
Source Step = 96.0705%
Source Step = 96.273%
Source Step = 96.4755%
Source Step = 96.678%
Source Step = 96.8805%
Source Step = 97.0829%
vernier = 0.0100226
Source Step = 97.3866%
Source Step = 97.6904%
Source Step = 97.9941%
Source Step = 98.2978%
Source Step = 98.6015%
vernier = 0.0150339
Source Step = 99.0419%
Source Step = 99.4975%
Source Step = 99.953%
Source stepping succeeded in finding the operating point.


Date: Mon Mar 30 15:30:11 2020
Total elapsed time: 19.905 seconds.

tnom = 27
temp = 27
method = modified trap
totiter = 1663136
traniter = 1634147
tranpoints = 569864
accept = 390351
rejected = 179513
matrix size = 42
fillins = 25
solver = Normal
Thread vector: 6.7/4.6[3] 2.7/2.1[3] 1.4/1.2[2] 0.2/0.7[1]  2592/500
Matrix Compiler1: 2.92 KB object code size  0.6/0.4/[0.2]
Matrix Compiler2: off  [0.3]/0.5/0.3

